[General]
network = SimpleNet
sim-time-limit = 100s

**.arp.typename = "GlobalArp"

*.radioMedium.typename = "ApskScalarRadioMedium"
*.radioMedium.backgroundNoise.power = -90dBm        # Background noise value
*.radioMedium.mediumLimitCache.centerFrequency = 2GHz

*.host*.hasStatus = true
*.visualizer.energyStorageVisualizer.displayEnergyStorages = true

*.configurator.config = xmldoc ("address.xml")

*.baseStation.typename = "LEACHbs"                  # Provides app for Base Station
*.host*.typename = "LEACHnode"                      # Provides app for Nodes
*.host*.LEACHnode.clusterHeadPercentage = 0.2       # Sets Cluster Head percentage

*.numNodes = 8                                      # Sets number of nodes present in network in a simulation
*.host*.mobility.typename = "StationaryMobility"

*.host[*].mobility.initFromDisplayString = false

**.constraintAreaMinX = 100m
**.constraintAreaMaxX = 480m                        # Sets maximum X dimension of sim area.
**.constraintAreaMinY = 100m
**.constraintAreaMaxY = 800m

# Sets radio parameters for nodes
*.host*.wlan[0].typename = "Ieee802154NarrowbandInterface"
*.host*.wlan[0].radio.typename = "ApskScalarRadio"
*.host*.wlan[0].radio.centerFrequency = 2GHz
*.host*.wlan[0].radio.bandwidth = 2MHz
*.host*.wlan[0].radio.transmitter.power = 1.4mW
*.host*.wlan[0].radio.transmitter.preambleDuration = 10us
*.host*.wlan[0].radio.transmitter.headerLength = 8B
*.host*.wlan[0].radio.receiver.sensitivity = -85dBm
*.host*.wlan[0].radio.receiver.energyDetection = -85dBm
*.host*.wlan[0].radio.receiver.snirThreshold = 4dB
*.host*.wlan[0].radio.displayCommunicationRange = true

# Sets radio parameters for base station
*.baseStation.wlan[0].typename = "Ieee802154NarrowbandInterface"
*.baseStation.wlan[0].radio.typename = "ApskScalarRadio"
*.baseStation.wlan[0].radio.centerFrequency = 2GHz
*.baseStation.wlan[0].radio.bandwidth = 2MHz
*.baseStation.wlan[0].radio.transmitter.power = 1.4mW
*.baseStation.wlan[0].radio.transmitter.preambleDuration = 10us
*.baseStation.wlan[0].radio.transmitter.headerLength = 8B
*.baseStation.wlan[0].radio.receiver.sensitivity = -85dBm
*.baseStation.wlan[0].radio.receiver.energyDetection = -85dBm
*.baseStation.wlan[0].radio.receiver.snirThreshold = 4dB
*.baseStation.wlan[0].radio.displayCommunicationRange = true

*.host*.**.bitrate = 1Mbps
*.baseStation.**.bitrate = 1Mbps

*.host*.energyStorage.typename = "SimpleEpEnergyStorage"
*.host[*].energyStorage.initialCapacity = 0.5J      # Sets the initial battery capacity of a node

*.host[*].energyManagement.typename = "SimpleEpEnergyManagement"
*.host[*].energyManagement.nodeShutdownCapacity = 0.1 * energyStorage.nominalCapacity

# Sets battery parameters for nodes
*.host*.wlan[0].radio.energyConsumer.typename = "StateBasedEpEnergyConsumer"
*.host*.wlan[0].radio.energyConsumer.offPowerConsumption = 0mW
*.host*.wlan[0].radio.energyConsumer.sleepPowerConsumption = 1mW
*.host*.wlan[0].radio.energyConsumer.switchingPowerConsumption = 1mW
*.host*.wlan[0].radio.energyConsumer.receiverIdlePowerConsumption = 2mW
*.host*.wlan[0].radio.energyConsumer.receiverBusyPowerConsumption = 5mW
*.host*.wlan[0].radio.energyConsumer.receiverReceivingPowerConsumption = 10mW
*.host*.wlan[0].radio.energyConsumer.transmitterIdlePowerConsumption = 2mW
*.host*.wlan[0].radio.energyConsumer.transmitterTransmittingPowerConsumption = 100mW


*.host*.wlan[0].radio.displayInterferenceRange = true
*.radioMedium.pathLoss.typename = "FreeSpacePathLoss"
*.host*.wlan[*].radio.bitErrorRate.result-recording-modes = default,+vector

